50
Energy = -928.5350582281
C     2.2507940    1.7229720    5.9961337 
C     3.5862881    1.5751009    5.7193370 
C     4.5214698    1.7686869    6.8013328 
C     5.8833736    1.6665417    6.7096509 
C     6.7627421    1.8656017    7.8127187 
C     8.1399544    1.7923430    7.8207896 
C     8.8253713    2.0277133    9.0679522 
C    10.1825816    2.0114113    9.2299361 
C    11.0044965    2.2511814   10.4048958 
C    12.3609675    2.3807034   10.2221091 
C    13.3111524    2.7774618   11.3216414 
C    12.6282805    3.2905891   12.5811508 
C    11.4599856    2.3730225   12.9062576 
C    10.3705715    2.3647534   11.8080658 
C     4.1119233    1.2248575    4.3546626 
C     8.9439891    1.4768176    6.5891328 
C    13.0669632    2.1880953    8.9018295 
C     9.5385635    3.6608974   11.9376143 
C     9.4822575    1.1368716   12.1106674 
C     1.1189979    1.5751985    5.0668743 
O     1.1567158    1.2831182    3.8856505 
O    -0.1171426    1.8014420    5.6392104 
H    -0.0006958    2.0255677    6.5806997 
H     1.9975378    1.9809528    7.0307151 
H    14.0146750    3.5275618   10.9174033 
H    13.9457103    1.9013675   11.5637599 
H    12.2741046    4.3220210   12.4219091 
H    13.3423746    3.3310895   13.4179507 
H    11.8438667    1.3453178   13.0337058 
H    10.9847859    2.6507043   13.8610577 
H     3.2972466    1.1075311    3.6349829 
H     4.6906836    0.2890096    4.3985766 
H     4.7975730    2.0093792    3.9982255 
H     8.3159548    1.3105854    5.7076751 
H     9.5555452    0.5735536    6.7407015 
H     9.6395196    2.2977905    6.3535442 
H    12.6205966    1.4165927    8.2619855 
H    14.1142756    1.9015009    9.0804992 
H    13.0943120    3.1261989    8.3208789 
H     8.7657350    3.7464123   11.1641744 
H    10.1758982    4.5530048   11.8554629 
H     9.0397028    3.6889640   12.9190262 
H     8.5838572    1.0792878   11.4861924 
H     9.1572239    1.1743557   13.1620888 
H    10.0484844    0.2049592   11.9655693 
H     4.0903624    2.0195603    7.7774336 
H     6.3172912    1.4187962    5.7379638 
H     6.2806396    2.1056604    8.7679507 
H     8.1676983    2.2435441    9.9112988 
H    10.7509397    1.8272728    8.3170651 
